Circuit: * C:\Users\cgrub\Desktop\School\EE252\Project\Adder\FullAdder.asc

WARNING: Less than two connections to node SUM.  This node is used by A2.
WARNING: Less than two connections to node CARRYOUT.  This node is used by A6.
Direct Newton iteration for .op point succeeded.

Date: Sun Apr 11 17:22:13 2021
Total elapsed time: 0.142 seconds.

tnom = 27
temp = 27
method = trap
totiter = 5
traniter = 0
tranpoints = 0
accept = 0
rejected = 0
matrix size = 11
fillins = 0
solver = Normal
Matrix Compiler1: 198 bytes object code size
Matrix Compiler2: 475 bytes object code size
